Base_Case_Wintter_Final_Version.glm
//This file has a model of the IEEE 13 node test feeder with 1000 houses attached
//This case is Winter Base Case, No EV attached to houses, only house power consumption is attached
//Distribution transformers are rated between 15 kVA to 35 kVA

#set profiler=1
#set threadcount=1;
#set randomseed=1;
#set relax_naming_rules=1;
#define stylesheet=http://gridlab-d.svn.sourceforge.net/viewvc/gridlab-d/trunk/core/gridlabd-2_0

//Clock that defines the simulation time
clock {
	timestamp '2010-12-25 0:00:00';
	stoptime '2010-12-31 0:10:00';
	timezone PST+8PDT;
}
//The tape module implements objects that can be used to establish and change the boundary condition on a model
module tape;

//module generators;
//distribution level solver methods to primarily obtain the voltage and current values in a system
module powerflow{
	solver_method FBS;
	default_maximum_voltage_error 1e-9;
	line_limits TRUE;
};

module climate;
module residential {
implicit_enduses NONE;
ANSI_voltage_check TRUE;
};

class player {
    double value;
}

object triplex_line_conductor {
	name tp_line_conductor;
	resistance 0.97;
	geometric_mean_radius 0.0111;
};

// Triplex Line configuration
object triplex_line_configuration {
	name triplex_line_configuration_1;
	conductor_1 tp_line_conductor;
	conductor_2 tp_line_conductor;
	conductor_N tp_line_conductor;
	insulation_thickness 0.08;
	diameter 0.368;
}

// Phase Conductor for 601: 556,500 26/7 ACSR
object overhead_line_conductor:6010 {
	geometric_mean_radius 0.031300;
	resistance 0.185900;
}

// Phase Conductor for 602: 4/0 6/1 ACSR
object overhead_line_conductor:6020 {
	geometric_mean_radius 0.00814;
	resistance 0.592000;
}

// Phase Conductor for 603, 604, 605: 1/0 ACSR
object overhead_line_conductor:6030 {
	geometric_mean_radius 0.004460;
	resistance 1.120000;
}

// Phase Conductor for 606: 250,000 AA,CN
object underground_line_conductor:6060 {
	outer_diameter 1.290000;
	conductor_gmr 0.017100;
	conductor_diameter 0.567000;
	conductor_resistance 0.410000;
	neutral_gmr 0.0020800;
	neutral_resistance 14.87200;
	neutral_diameter 0.0640837;
	neutral_strands 13.000000;
	shield_gmr 0.000000;
	shield_resistance 0.000000;
}

// Phase Conductor for 607: 1/0 AA,TS N: 1/0 Cu
object underground_line_conductor:6070 {
	outer_diameter 1.060000;
	conductor_gmr 0.011100;
	conductor_diameter 0.368000;
	conductor_resistance 0.970000;
	neutral_gmr 0.011100;
	neutral_resistance 0.970000;
	neutral_diameter 0.0640837;
	neutral_strands 6.000000;
	shield_gmr 0.000000;
	shield_resistance 0.000000;
}

// Overhead line configurations
object line_spacing:500601 {
	distance_AB 2.5;
	distance_AC 4.5;
	distance_BC 7.0;
	distance_BN 5.656854;
	distance_AN 4.272002;
	distance_CN 5.0;
}

// Overhead line configurations
object line_spacing:500602 {
	distance_AC 2.5;
	distance_AB 4.5;
	distance_BC 7.0;
	distance_CN 5.656854;
	distance_AN 4.272002;
	distance_BN 5.0;
}

object line_spacing:505603 {
	distance_AC 0.0;
	distance_AB 0.0;
	distance_BC 7.0;
	distance_AN 0.0;
	distance_CN 5.656854;
	distance_BN 5.0;
}

object line_spacing:505604 {
	distance_AC 7.0;
	distance_AB 0.0;
	distance_BC 0.0;
	distance_AN 5.656854;
	distance_CN 5.0;
	distance_BN 0.0;
}

object line_spacing:510 {
	distance_AC 0.0;
	distance_AB 0.0;
	distance_BC 0.0;
	distance_AN 0.0;
	distance_CN 5.0;
	distance_BN 0.0;
	}

object line_configuration:601 {
	conductor_A overhead_line_conductor:6010;
	conductor_B overhead_line_conductor:6010;
	conductor_C overhead_line_conductor:6010;
	conductor_N overhead_line_conductor:6020;
	spacing line_spacing:500601;
}

object line_configuration:602 {
	conductor_A overhead_line_conductor:6020;
	conductor_B overhead_line_conductor:6020;
	conductor_C overhead_line_conductor:6020;
	conductor_N overhead_line_conductor:6020;
	spacing line_spacing:500602;
}

object line_configuration:603 {
	conductor_B overhead_line_conductor:6030;
	conductor_C overhead_line_conductor:6030;
	conductor_N overhead_line_conductor:6030;
	spacing line_spacing:505603;
}

object line_configuration:604 {
	conductor_A overhead_line_conductor:6030;
	conductor_C overhead_line_conductor:6030;
	conductor_N overhead_line_conductor:6030;
	spacing line_spacing:505604;
}

object line_configuration:605 {
	conductor_C overhead_line_conductor:6030;
	conductor_N overhead_line_conductor:6030;
	spacing line_spacing:510;
}

// Underground line configuration
object line_spacing:515 {
	distance_AB 0.500000;
	distance_BC 0.500000;
	distance_AC 1.000000;
	distance_AN 0.000000;
	distance_BN 0.000000;
	distance_CN 0.000000;
}

object line_spacing:520 {
	distance_AB 0.000000;
	distance_BC 0.000000;
	distance_AC 0.000000;
	distance_AN 0.083333;
	distance_BN 0.000000;
	distance_CN 0.000000;
}

object line_configuration:606 {
	conductor_A underground_line_conductor:6060;
	conductor_B underground_line_conductor:6060;
	conductor_C underground_line_conductor:6060;
	spacing line_spacing:515;
}

object line_configuration:607 {
	conductor_A underground_line_conductor:6070;
	conductor_N underground_line_conductor:6070;
	spacing line_spacing:520;
}

// Define line objects
object overhead_line:632645 {
	phases "BCN";
	name OL632-645;
	from node:632;
	to node:645;
	length 500;
	configuration line_configuration:603;
}

object overhead_line:645646 {
	phases "BCN";
	name OL645-646;
	from node:645;
	to node:646;
	length 300;
	configuration line_configuration:603;
}

object overhead_line:630632 {
	phases "ABCN";
	name OL630-632;
	from node:630;
	to node:632;
	length 2000;
	configuration line_configuration:601;
}

// Split line for distributed load
object overhead_line:6326321 {
	phases "ABCN";
	name OL632-6321;
	from node:632;
	to node:6321;
	length 500;
	configuration line_configuration:601;
}

object overhead_line:6321671 {
	phases "ABCN";
	name OL6321-671;
	from node:6321;
	to node:671;
	length 1500;
	configuration line_configuration:601;
}

// End split line
object overhead_line:671680 {
	phases "ABCN";
	name OL671-680;
	from node:671;
	to node:680;
	length 1000;
	configuration line_configuration:601;
}

object overhead_line:671684 {
	phases "ACN";
	name OL671-684;
	from node:671;
	to node:684;
	length 300;
	configuration line_configuration:604;
}

object overhead_line:684611 {
	phases "CN";
	name OL684-611;
	from node:684;
	to node:611;
	length 300;
	configuration line_configuration:605;
}

object underground_line:684652 {
	phases "AN";
	name UL684-652;
	from node:684;
	to node:652;
	length 800;
	configuration line_configuration:607;
}

object underground_line:692675 {
	phases "ABC";
	name UL692-675;
	from node:692;
	to node:675;
	length 500;
	configuration line_configuration:606;
}

object overhead_line:632633 {
	phases "ABCN";
	name UL632-633;
	from node:632;
	to node:633;
	length 500;
	configuration line_configuration:602;
}

// Create node objects
//Node 633
object node:633 {
	name N633;
	phases "ABCN";
	voltage_A 2401.7771;
	voltage_B -1200.8886-2080.000j;
	voltage_C -1200.8886+2080.000j;
	nominal_voltage 2401.7771;
}
//Node 630
object node:630 {
	name N630;
	phases "ABCN";
	voltage_A 2401.7771+0j;
	voltage_B -1200.8886-2080.000j;
	voltage_C -1200.8886+2080.000j;
	nominal_voltage 2401.7771;
}
//Node 632
object node:632 {
	name N632;
	phases "ABCN";
	voltage_A 2401.7771;
	voltage_B -1200.8886-2080.000j;
	voltage_C -1200.8886+2080.000j;
	nominal_voltage 2401.7771;
}
//Node 650
object node:650 {
	name N650;
	phases "ABCN";
	bustype SWING;
	voltage_A 2401.7771;
	voltage_B -1200.8886-2080.000j;
	voltage_C -1200.8886+2080.000j;
	nominal_voltage 2401.7771;
}
//Node 671
object node:671 {
	name N671;
	phases "ABCN";
	voltage_A 2401.7771;
	voltage_B -1200.8886-2080.000j;
	voltage_C -1200.8886+2080.000j;
	nominal_voltage 2401.7771;
}
//Node 680
object node:680 {
	name N680;
	phases "ABCN";
	voltage_A 2401.7771;
	voltage_B -1200.8886-2080.000j;
	voltage_C -1200.8886+2080.000j;
	nominal_voltage 2401.7771;
}
//Node 684
object node:684 {
	name N684;
	phases "ACN";
	voltage_A 2401.7771;
	voltage_B -1200.8886-2080.000j;
	voltage_C -1200.8886+2080.000j;
	nominal_voltage 2401.7771;
}

// distributed load between node 632 and 671
// 2/3 of load 1/4 of length down line
//Node 6711
object node:6711 {
	name N6711;
	parent N611;
	phases "CN";
	voltage_C -1200.8886+2080.000j;
	nominal_voltage 2401.7771;
}
//Node 6321
object node:6321 {
	name N6321;
	phases "ABCN";
	voltage_A 2401.7771;
	voltage_B -1200.8886-2080.000j;
	voltage_C -1200.8886+2080.000j;
	nominal_voltage 2401.7771;
}

// Create node objects with attached loads
//Node 611
object node:611 {
	name N611;
	phases "CN";
	voltage_C -1200.8886+2080.000j;
	nominal_voltage 2401.7771;
}
//Node 634
object node:634 {
	name N634;
	phases "ABCN";
	voltage_A 480.000+0j;
	voltage_B -240.000-415.6922j;
	voltage_C -240.000+415.6922j;
	nominal_voltage 480.000;
}
//Node 645
object node:645 {
	name N645;
	phases "BCN";
	voltage_A 2401.7771;
	voltage_B -1200.8886-2080.000j;
	voltage_C -1200.8886+2080.000j;
	nominal_voltage 2401.7771;
}
//Node 646
object node:646 {
	name N646;
	phases "BCN";
	voltage_A 2401.7771;
	voltage_B -1200.8886-2080.000j;
	voltage_C -1200.8886+2080.000j;
	nominal_voltage 2401.7771;
}
//Node 652
object node:652 {
	name N652;
	phases "AN";
	voltage_A 2401.7771;
	voltage_B -1200.8886-2080.000j;
	voltage_C -1200.8886+2080.000j;
	nominal_voltage 2401.7771;
}
//Node 675
object node:675 {
	name N675;
	phases "ABCN";
	voltage_A 2401.7771;
	voltage_B -1200.8886-2080.000j;
	voltage_C -1200.8886+2080.000j;
	nominal_voltage 2401.7771;
}
//Node 692
object node:692 {
	name N692;
	phases "ABCN";
	voltage_A 2401.7771;
	voltage_B -1200.8886-2080.000j;
	voltage_C -1200.8886+2080.000j;
	nominal_voltage 2401.7771;
}
//------------------------------------------------------------------------------
// center Tap transformers:
// Node 611 [ 8 transformers]: 39 Houses
// Transformer for Node 611 ( Single Phase Phase C ) || Triplex Node || Triplex line
// 39 Houses : 8 transformers :
// center_tap_N611_1 25KVA
object transformer {
	name center_tap_N611_1;
	phases CS;
	from N611;
	to trip_node611_1;
	configuration CS25_config;
}

object triplex_node {
	name trip_node611_1;
	phases CS;
	nominal_voltage 120;
}

object triplex_line {
	name ;
	phases CS;
	from trip_node611_1;
	to trip_meter611_1;
	length 10;
	configuration triplex_line_configuration_1;
}
//------------------------------------------------------------------------------
// center_tap_N611_2 15KVA
object transformer {
	name center_tap_N611_2;
	phases CS;
	from N611;
	to trip_node611_2;
	configuration CS15_config;
}

object triplex_node {
	name trip_node611_2;
	phases CS;
	nominal_voltage 120;
}

object triplex_line {
	name trip_line611_2;
	phases CS;
	from trip_node611_2;
	to trip_meter611_2;
	length 10;
	configuration triplex_line_configuration_1;
}
//------------------------------------------------------------------------------
// center_tap_N611_3 20KVA
object transformer {
	name center_tap_N611_3;
	phases CS;
	from N611;
	to trip_node611_3;
	configuration CS20_config;
}

object triplex_node {
	name trip_node611_3;
	phases CS;
	nominal_voltage 120;
}

object triplex_line {
	name trip_line611_3;
	phases CS;
	from trip_node611_3;
	to trip_meter611_3;
	length 10;
	configuration triplex_line_configuration_1;
}
//------------------------------------------------------------------------------
// center_tap_N611_4
object transformer {
	name center_tap_N611_4;
	phases CS;
	from N611;
	to trip_node611_4;
	configuration CS30_config;
}

object triplex_node {
	name trip_node611_4;
	phases CS;
	nominal_voltage 120;
}

object triplex_line {
	name trip_line611_4;
	phases CS;
	from trip_node611_4;
	to trip_meter611_4;
	length 10;
	configuration triplex_line_configuration_1;
}
//------------------------------------------------------------------------------
// center_tap_N611_5 35KVA
object transformer {
	name center_tap_N611_5;
	phases CS;
	from N611;
	to trip_node611_5;
	configuration CS35_config;
}

object triplex_node {
	name trip_node611_5;
	phases CS;
	nominal_voltage 120;
}

object triplex_line {
	name trip_line611_5;
	phases CS;
	from trip_node611_5;
	to trip_meter611_5;
	length 10;
	configuration triplex_line_configuration_1;
}
//------------------------------------------------------------------------------
// center_tap_N611_6 25KVA
object transformer {
	name center_tap_N611_6;
	phases CS;
	from N611;
	to trip_node611_6;
	configuration CS25_config;
}

object triplex_node {
	name trip_node611_6;
	phases CS;
	nominal_voltage 120;
}

object triplex_line {
	name trip_line611_6;
	phases CS;
	from trip_node611_6;
	to trip_meter611_6;
	length 10;
	configuration triplex_line_configuration_1;
}
//------------------------------------------------------------------------------
// center_tap_N611_7 20KVA
object transformer {
	name center_tap_N611_7;
	phases CS;
	from N611;
	to trip_node611_7;
	configuration CS20_config;
}

object triplex_node {
	name trip_node611_7;
	phases CS;
	nominal_voltage 120;
}

object triplex_line {
	name trip_line611_7;
	phases CS;
	from trip_node611_7;
	to trip_meter611_7;
	length 10;
	configuration triplex_line_configuration_1;
}
//------------------------------------------------------------------------------
// center_tap_N611_8 25KVA
object transformer {
	name center_tap_N611_8;
	phases CS;
	from N611;
	to trip_node611_8;
	configuration CS25_config;
}

object triplex_node {
	name trip_node611_8;
	phases CS;
	nominal_voltage 120;
}

object triplex_line {
	name trip_line611_8;
	phases CS;
	from trip_node611_8;
	to trip_meter611_8;
	length 10;
	configuration triplex_line_configuration_1;
}
//-----------------------------------------------------------------------------
//------------------------------------------------------------------------------
// center Tap transformers:
// Node 652 [ 8 transformers]: 47 Houses
// Transformer for Node 652 ( Single Phase | Phase A ) || Triplex Node || Triplex line
// 47 Houses : 8 transformers :
// center_tap_N652_1 35KVA
object transformer {
	name center_tap_N652_1;
	phases AS;
	from N652;
	to trip_node652_1;
	configuration AS35_config;
}

object triplex_node {
	name trip_node652_1;
	phases AS;
	nominal_voltage 120;
}

object triplex_line {
	name trip_line652_1;
	phases AS;
	from trip_node652_1;
	to trip_meter652_1;
	length 10;
	configuration triplex_line_configuration_1;
}

// center_tap_N652_2 35KVA
object transformer {
	name center_tap_N652_2;
	phases AS;
	from N652;
	to trip_node652_2;
	configuration AS35_config;
}

object triplex_node {
	name trip_node652_2;
	phases AS;
	nominal_voltage 120;
}

object triplex_line {
	name trip_line652_2;
	phases AS;
	from trip_node652_2;
	to trip_meter652_2;
	length 10;
	configuration triplex_line_configuration_1;
}

// center_tap_N652_3 30KVA
object transformer {
	name center_tap_N652_3;
	phases AS;
	from N652;
	to trip_node652_3;
	configuration AS30_config;
}

object triplex_node {
	name trip_node652_3;
	phases AS;
	nominal_voltage 120;
}

object triplex_line {
	name trip_line652_3;
	phases AS;
	from trip_node652_3;
	to trip_meter652_3;
	length 10;
	configuration triplex_line_configuration_1;
}

// center_tap_N652_4 30KVA
object transformer {
	name center_tap_N652_4;
	phases AS;
	from N652;
	to trip_node652_4;
	configuration AS35_config;
}

object triplex_node {
	name trip_node652_4;
	phases AS;
	nominal_voltage 120;
}

object triplex_line {
	name trip_line652_4;
	phases AS;
	from trip_node652_4;
	to trip_meter652_4;
	length 10;
	configuration triplex_line_configuration_1;
}

// center_tap_N652_5 30KVA
object transformer {
	name center_tap_N652_5;
	phases AS;
	from N652;
	to trip_node652_5;
	configuration AS30_config;
}

object triplex_node {
	name trip_node652_5;
	phases AS;
	nominal_voltage 120;
}

object triplex_line {
	name trip_line652_5;
	phases AS;
	from trip_node652_5;
	to trip_meter652_5;
	length 10;
	configuration triplex_line_configuration_1;
}

// center_tap_N652_6 20KVA
object transformer {
	name center_tap_N652_6;
	phases AS;
	from N652;
	to trip_node652_6;
	configuration AS20_config;
}

object triplex_node {
	name trip_node652_6;
	phases AS;
	nominal_voltage 120;
}

object triplex_line {
	name trip_line652_6;
	phases AS;
	from trip_node652_6;
	to trip_meter652_6;
	length 10;
	configuration triplex_line_configuration_1;
}

// center_tap_N652_7 35KVA
object transformer {
	name center_tap_N652_7;
	phases AS;
	from N652;
	to trip_node652_7;
	configuration AS35_config;
}

object triplex_node {
	name trip_node652_7;
	phases AS;
	nominal_voltage 120;
}

object triplex_line {
	name trip_line652_7;
	phases AS;
	from trip_node652_7;
	to trip_meter652_7;
	length 10;
	configuration triplex_line_configuration_1;
}

// center_tap_N652_8 15KVA
object transformer {
	name center_tap_N652_8;
	phases AS;
	from N652;
	to trip_node652_8;
	configuration AS15_config;
}

object triplex_node {
	name trip_node652_8;
	phases AS;
	nominal_voltage 120;
}

object triplex_line {
	name trip_line652_8;
	phases AS;
	from trip_node652_8;
	to trip_meter652_8;
	length 10;
	configuration triplex_line_configuration_1;
}
//-----------------------------------------------------------------------------
//------------------------------------------------------------------------------
// center Tap transformers:
// Node 646 [ 16 transformers]: 77 Houses
// Transformer for Node 646 ( Two Phase | Phase C and Phase B) || Triplex Node || Triplex line
// 77 Houses : 16 transformers :
// center_tap_N646_1 Phase B 25KVA
object transformer {
	name center_tap_N646_1B;
	phases BS;
	from N646;
	to trip_node646_1B;
	configuration BS25_config;
}
object triplex_node {
	name trip_node646_1B;
	phases BS;
	nominal_voltage 120;

}
object triplex_line {
	name trip_line646_1B;
	phases BS;
	from trip_node646_1B;
	to trip_meter646_1B;
	length 10;
	configuration triplex_line_configuration_1;
}

// center_tap_N646_2 Phase B 15KVA
object transformer {
	name center_tap_N646_2B;
	phases BS;
	from N646;
	to trip_node646_2B;
	configuration BS15_config;
}

object triplex_node {
	name trip_node646_2B;
	phases BS;
	nominal_voltage 120;
}

object triplex_line {
	name trip_line646_2B;
	phases BS;
	from trip_node646_2B;
	to trip_meter646_2B;
	length 10;
	configuration triplex_line_configuration_1;
}

// center_tap_N646_3 Phase B 20KVA
object transformer {
	name center_tap_N646_3B;
	phases BS;
	from N646;
	to trip_node646_3B;
	configuration BS25_config;
}

object triplex_node {
	name trip_node646_3B;
	phases BS;
	nominal_voltage 120;
}

object triplex_line {
	name trip_line646_3B;
	phases BS;
	from trip_node646_3B;
	to trip_meter646_3B;
	length 10;
	configuration triplex_line_configuration_1;
}
// center_tap_N646_4 Phase B 30KVA
object transformer {
	name center_tap_N646_4B;
	phases BS;
	from N646;
	to trip_node646_4B;
	configuration BS30_config;
}

object triplex_node {
	name trip_node646_4B;
	phases BS;
	nominal_voltage 120;
}

object triplex_line {
	name trip_line646_4B;
	phases BS;
	from trip_node646_4B;
	to trip_meter646_4B;
	length 10;
	configuration triplex_line_configuration_1;
}

// center_tap_N646_5 Phase B 30KVA
object transformer {
	name center_tap_N646_5B;
	phases BS;
	from N646;
	to trip_node646_5B;
	configuration BS30_config;
}

object triplex_node {
	name trip_node646_5B;
	phases BS;
	nominal_voltage 120;
}

object triplex_line {
	name trip_line646_5B;
	phases BS;
	from trip_node646_5B;
	to trip_meter646_5B;
	length 10;
	configuration triplex_line_configuration_1;
}

// center_tap_N646_6 Phase B 20KVA
object transformer {
	name center_tap_N646_6B;
	phases BS;
	from N646;
	to trip_node646_6B;
	configuration BS20_config;
}

object triplex_node {
	name trip_node646_6B;
	phases BS;
	nominal_voltage 120;
}

object triplex_line {
	name trip_line646_6B;
	phases BS;
	from trip_node646_6B;
	to trip_meter646_6B;
	length 10;
	configuration triplex_line_configuration_1;
}


// center_tap_N646_7 Phase B 15KVA
object transformer {
	name center_tap_N646_7B;
	phases BS;
	from N646;
	to trip_node646_7B;
	configuration BS15_config;
}

object triplex_node {
	name trip_node646_7B;
	phases BS;
	nominal_voltage 120;
}

object triplex_line {
	name trip_line646_7B;
	phases BS;
	from trip_node646_7B;
	to trip_meter646_7B;
	length 10;
	configuration triplex_line_configuration_1;
}

// center_tap_N646_8 Phase B 15KVA
object transformer {
	name center_tap_N646_8B;
	phases BS;
	from N646;
	to trip_node646_8B;
	configuration BS15_config;
}

object triplex_node {
	name trip_node646_8B;
	phases BS;
	nominal_voltage 120;
}

object triplex_line {
	name trip_line646_8B;
	phases BS;
	from trip_node646_8B;
	to trip_meter646_8B;
	length 10;
	configuration triplex_line_configuration_1;
}
//-----------------------------------------------------------------------------
// center_tap_N646_1 Phase C 20KVA
object transformer {
	name center_tap_N646_1C;
	phases CS;
	from N646;
	to trip_node646_1C;
	configuration CS20_config;
}

object triplex_node {
	name trip_node646_1C;
	phases CS;
	nominal_voltage 120;
}

object triplex_line {
	name trip_line646_1C;
	phases CS;
	from trip_node646_1C;
	to trip_meter646_1C;
	length 10;
	configuration triplex_line_configuration_1;
}

// center_tap_N646_2 Phase C 35KVA
object transformer {
	name center_tap_N646_2C;
	phases CS;
	from N646;
	to trip_node646_2C;
	configuration CS35_config;
}

object triplex_node {
	name trip_node646_2C;
	phases CS;
	nominal_voltage 120;
}

object triplex_line {
	name trip_line646_2C;
	phases CS;
	from trip_node646_2C;
	to trip_meter646_2C;
	length 10;
	configuration triplex_line_configuration_1;
}

// center_tap_N646_3 Phase C 30KVA
object transformer {
	name center_tap_N646_3C;
	phases CS;
	from N646;
	to trip_node646_3C;
	configuration CS30_config;
}

object triplex_node {
	name trip_node646_3C;
	phases CS;
	nominal_voltage 120;
}

object triplex_line {
	name trip_line646_3C;
	phases CS;
	from trip_node646_3C;
	to trip_meter646_3C;
	length 10;
	configuration triplex_line_configuration_1;
}

// center_tap_N646_4 Phase C 15KVA
object transformer {
	name center_tap_N646_4C;
	phases CS;
	from N646;
	to trip_node646_4C;
	configuration CS15_config;
}

object triplex_node {
	name trip_node646_4C;
	phases CS;
	nominal_voltage 120;
}

object triplex_line {
	name trip_line646_4C;
	phases CS;
	from trip_node646_4C;
	to trip_meter646_4C;
	length 10;
	configuration triplex_line_configuration_1;
}


// center_tap_N646_5 Phase C 30KVA
object transformer {
	name center_tap_N646_5C;
	phases CS;
	from N646;
	to trip_node646_5C;
	configuration CS30_config;
}

object triplex_node {
	name trip_node646_5C;
	phases CS;
	nominal_voltage 120;
}

object triplex_line {
	name trip_line646_5C;
	phases CS;
	from trip_node646_5C;
	to trip_meter646_5C;
	length 10;
	configuration triplex_line_configuration_1;
}

// center_tap_N646_6 Phase C 35KVA
object transformer {
	name center_tap_N646_6C;
	phases CS;
	from N646;
	to trip_node646_6C;
	configuration CS35_config;
}

object triplex_node {
	name trip_node646_6C;
	phases CS;
	nominal_voltage 120;
}

object triplex_line {
	name trip_line646_6C;
	phases CS;
	from trip_node646_6C;
	to trip_meter646_6C;
	length 10;
	configuration triplex_line_configuration_1;
}

// center_tap_N646_7 Phase C 25KVA
object transformer {
	name center_tap_N646_7C;
	phases CS;
	from N646;
	to trip_node646_7C;
	configuration CS25_config;
}

object triplex_node {
	name trip_node646_7C;
	phases CS;
	nominal_voltage 120;
}

object triplex_line {
	name trip_line646_7C;
	phases CS;
	from trip_node646_7C;
	to trip_meter646_7C;
	length 10;
	configuration triplex_line_configuration_1;
}

// center_tap_N646_8 Phase C 25KVA
object transformer {
	name center_tap_N646_8C;
	phases CS;
	from N646;
	to trip_node646_8C;
	configuration CS25_config;
}

object triplex_node {
	name trip_node646_8C;
	phases CS;
	nominal_voltage 120;
}

object triplex_line {
	name trip_line646_8C;
	phases CS;
	from trip_node646_8C;
	to trip_meter646_8C;
	length 10;
	configuration triplex_line_configuration_1;
}
//----------------------------------------------------------------------------
//------------------------------------------------------------------------------
// center Tap transformers:
// Node 680 [ 22 transformers]: 111 Houses
// Transformer for Node 680 ( Three Phase |Phase A,B and C ) || Triplex Node || Triplex line
// 111 Houses : 22 transformers :
// center_tap_N680_1 Phase A 35KVA
object transformer {
	name center_tap_N680_1A;
	phases AS;
	from N680;
	to trip_node680_1A;
	configuration AS35_config;
}

object triplex_node {
	name trip_node680_1A;
	phases AS;
	nominal_voltage 120;
}

object triplex_line {
	name trip_line680_1A;
	phases AS;
	from trip_node680_1A;
	to trip_meter680_1A;
	length 10;
	configuration triplex_line_configuration_1;
}

// center_tap_N680_2 Phase A 15KVA
object transformer {
	name center_tap_N680_2A;
	phases AS;
	from N680;
	to trip_node680_2A;
	configuration AS15_config;
}

object triplex_node {
	name trip_node680_2A;
	phases AS;
	nominal_voltage 120;
}

object triplex_line {
	name trip_line680_2A;
	phases AS;
	from trip_node680_2A;
	to trip_meter680_2A;
	length 10;
	configuration triplex_line_configuration_1;
}

// center_tap_N680_3 Phase A 30KVA
object transformer {
	name center_tap_N680_3A;
	phases AS;
	from N680;
	to trip_node680_3A;
	configuration AS30_config;
}

object triplex_node {
	name trip_node680_3A;
	phases AS;
	nominal_voltage 120;
}

object triplex_line {
	name trip_line680_3A;
	phases AS;
	from trip_node680_3A;
	to trip_meter680_3A;
	length 10;
	configuration triplex_line_configuration_1;
}


// center_tap_N680_4 Phase A 15KVA
object transformer {
	name center_tap_N680_4A;
	phases AS;
	from N680;
	to trip_node680_4A;
	configuration AS15_config;
}

object triplex_node {
	name trip_node680_4A;
	phases AS;
	nominal_voltage 120;
}

object triplex_line {
	name trip_line680_4A;
	phases AS;
	from trip_node680_4A;
	to trip_meter680_4A;
	length 10;
	configuration triplex_line_configuration_1;
}

// center_tap_N680_5 Phase A 30KVA
object transformer {
	name center_tap_N680_5A;
	phases AS;
	from N680;
	to trip_node680_5A;
	configuration AS30_config;
}

object triplex_node {
	name trip_node680_5A;
	phases AS;
	nominal_voltage 120;
}

object triplex_line {
	name trip_line680_5A;
	phases AS;
	from trip_node680_5A;
	to trip_meter680_5A;
	length 10;
	configuration triplex_line_configuration_1;
}

// center_tap_N680_6 Phase A 30KVA
object transformer {
	name center_tap_N680_6A;
	phases AS;
	from N680;
	to trip_node680_6A;
	configuration AS30_config;
}

object triplex_node {
	name trip_node680_6A;
	phases AS;
	nominal_voltage 120;
}

object triplex_line {
	name trip_line680_6A;
	phases AS;
	from trip_node680_6A;
	to trip_meter680_6A;
	length 10;
	configuration triplex_line_configuration_1;
}

// center_tap_N680_7 Phase A 20KVA
object transformer {
	name center_tap_N680_7A;
	phases AS;
	from N680;
	to trip_node680_7A;
	configuration AS20_config;
}

object triplex_node {
	name trip_node680_7A;
	phases AS;
	nominal_voltage 120;
}

object triplex_line {
	name trip_line680_7A;
	phases AS;
	from trip_node680_7A;
	to trip_meter680_7A;
	length 10;
	configuration triplex_line_configuration_1;
}
//-----------------------------------------------------------------------------
// center_tap_N680_1B Phase B 30KVA
object transformer {
	name center_tap_N680_1B;
	phases BS;
	from N680;
	to trip_node680_1B;
	configuration BS30_config;
}

object triplex_node {
	name trip_node680_1B;
	phases BS;
	nominal_voltage 120;
}

object triplex_line {
	name trip_line680_1B;
	phases BS;
	from trip_node680_1B;
	to trip_meter680_1B;
	length 10;
	configuration triplex_line_configuration_1;
}

// center_tap_N680_2B Phase B 15KVA
object transformer {
	name center_tap_N680_2B;
	phases BS;
	from N680;
	to trip_node680_2B;
	configuration BS15_config;
}

object triplex_node {
	name trip_node680_2B;
	phases BS;
	nominal_voltage 120;
}

object triplex_line {
	name trip_line680_2B;
	phases BS;
	from trip_node680_2B;
	to trip_meter680_2B;
	length 10;
	configuration triplex_line_configuration_1;
}


// center_tap_N680_3B Phase B 30KVA
object transformer {
	name center_tap_N680_3B;
	phases BS;
	from N680;
	to trip_node680_3B;
	configuration BS30_config;
}

object triplex_node {
	name trip_node680_3B;
	phases BS;
	nominal_voltage 120;
}

object triplex_line {
	name trip_line680_3B;
	phases BS;
	from trip_node680_3B;
	to trip_meter680_3B;
	length 10;
	configuration triplex_line_configuration_1;
}

// center_tap_N680_4 Phase B 30KVA
object transformer {
	name center_tap_N680_4B;
	phases BS;
	from N680;
	to trip_node680_4B;
	configuration BS30_config;
}

object triplex_node {
	name trip_node680_4B;
	phases BS;
	nominal_voltage 120;
}

object triplex_line {
	name trip_line680_4B;
	phases BS;
	from trip_node680_4B;
	to trip_meter680_4B;
	length 10;
	configuration triplex_line_configuration_1;
}

// center_tap_N680_5 Phase B 20KVA
object transformer {
	name center_tap_N680_5B;
	phases BS;
	from N680;
	to trip_node680_5B;
	configuration BS20_config;
}

object triplex_node {
	name trip_node680_5B;
	phases BS;
	nominal_voltage 120;
}

object triplex_line {
	name trip_line680_5B;
	phases BS;
	from trip_node680_5B;
	to trip_meter680_5B;
	length 10;
	configuration triplex_line_configuration_1;
}

// center_tap_N680_6 Phase B 20KVA
object transformer {
	name center_tap_N680_6B;
	phases BS;
	from N680;
	to trip_node680_6B;
	configuration BS20_config;
}

object triplex_node {
	name trip_node680_6B;
	phases BS;
	nominal_voltage 120;
}

object triplex_line {
	name trip_line680_6B;
	phases BS;
	from trip_node680_6B;
	to trip_meter680_6B;
	length 10;
	configuration triplex_line_configuration_1;
}

// center_tap_N680_7 Phase B 30KVA
object transformer {
	name center_tap_N680_7B;
	phases BS;
	from N680;
	to trip_node680_7B;
	configuration BS30_config;
}

object triplex_node {
	name trip_node680_7B;
	phases BS;
	nominal_voltage 120;
}

object triplex_line {
	name trip_line680_7B;
	phases BS;
	from trip_node680_7B;
	to trip_meter680_7B;
	length 10;
	configuration triplex_line_configuration_1;
}

// center_tap_N680_8 Phase B 30KVA
object transformer {
	name center_tap_N680_8B;
	phases BS;
	from N680;
	to trip_node680_8B;
	configuration BS30_config;
}

object triplex_node {
	name trip_node680_8B;
	phases BS;
	nominal_voltage 120;
}

object triplex_line {
	name trip_line680_8B;
	phases BS;
	from trip_node680_8B;
	to trip_meter680_8B;
	length 10;
	configuration triplex_line_configuration_1;
}

//-----------------------------------------------------------------------------
// center_tap_N680_1 Phase C 30KVA
object transformer {
	name center_tap_N680_1C;
	phases CS;
	from N680;
	to trip_node680_1C;
	configuration CS30_config;
}

object triplex_node {
	name trip_node680_1C;
	phases CS;
	nominal_voltage 120;
}

object triplex_line {
	name trip_line680_1C;
	phases CS;
	from trip_node680_1C;
	to trip_meter680_1C;
	length 10;
	configuration triplex_line_configuration_1;
}


// center_tap_N680_2 Phase C 35KVA
object transformer {
	name center_tap_N680_2C;
	phases CS;
	from N680;
	to trip_node680_2C;
	configuration CS35_config;
}

object triplex_node {
	name trip_node680_2C;
	phases CS;
	nominal_voltage 120;
}

object triplex_line {
	name trip_line680_2C;
	phases CS;
	from trip_node680_2C;
	to trip_meter680_2C;
	length 10;
	configuration triplex_line_configuration_1;
}

// center_tap_N680_3 Phase C 20KVA
object transformer {
	name center_tap_N680_3C;
	phases CS;
	from N680;
	to trip_node680_3C;
	configuration CS20_config;
}

object triplex_node {
	name trip_node680_3C;
	phases CS;
	nominal_voltage 120;
}

object triplex_line {
	name trip_line680_3C;
	phases CS;
	from trip_node680_3C;
	to trip_meter680_3C;
	length 10;
	configuration triplex_line_configuration_1;
}
// center_tap_N680_4 Phase C 25KVA
object transformer {
	name center_tap_N680_4C;
	phases CS;
	from N680;
	to trip_node680_4C;
	configuration CS25_config;
}

object triplex_node {
	name trip_node680_4C;
	phases CS;
	nominal_voltage 120;
}

object triplex_line {
	name trip_line680_4C;
	phases CS;
	from trip_node680_4C;
	to trip_meter680_4C;
	length 10;
	configuration triplex_line_configuration_1;
}
// center_tap_N680_5 Phase C 30KVA
object transformer {
	name center_tap_N680_5C;
	phases CS;
	from N680;
	to trip_node680_5C;
	configuration CS30_config;
}
object triplex_node {
	name trip_node680_5C;
	phases CS;
	nominal_voltage 120;
}
object triplex_line {
	name trip_line680_5C;
	phases CS;
	from trip_node680_5C;
	to trip_meter680_5C;
	length 10;
	configuration triplex_line_configuration_1;
}

// center_tap_N680_6 Phase C 20KVA
object transformer {
	name center_tap_N680_6C;
	phases CS;
	from N680;
	to trip_node680_6C;
	configuration CS20_config;
}

object triplex_node {
	name trip_node680_6C;
	phases CS;
	nominal_voltage 120;
}

object triplex_line {
	name trip_line680_6C;
	phases CS;
	from trip_node680_6C;
	to trip_meter680_6C;
	length 10;
	configuration triplex_line_configuration_1;
}
// center_tap_N680_7 Phase C 20KVA
object transformer {
	name center_tap_N680_7C;
	phases CS;
	from N680;
	to trip_node680_7C;
	configuration CS20_config;
}
object triplex_node {
	name trip_node680_7C;
	phases CS;
	nominal_voltage 120;
}

object triplex_line {
	name trip_line680_7C;
	phases CS;
	from trip_node680_7C;
	to trip_meter680_7C;
	length 10;
	configuration triplex_line_configuration_1;
}
//----------------------------------------------------------------------------
//------------------------------------------------------------------------------
// center Tap transformers:
// Node 671 [ 22 transformers]: 115 Houses
// Transformer for Node 671 ( Three Phase | Phase A,B and C ) || Triplex Node || Triplex line
// 115 Houses : 22 transformers :
 //center_tap_N671_1 Phase A 20KVA
object transformer {
	name center_tap_N671_1A;
	phases AS;
	from N671;
	to trip_node671_1A;
	configuration AS20_config;
}

object triplex_node {
	name trip_node671_1A;
	phases AS;
	nominal_voltage 120;
}

object triplex_line {
	name trip_line671_1A;
	phases AS;
	from trip_node671_1A;
	to trip_meter671_1A;
	length 10;
	configuration triplex_line_configuration_1;
}

//center_tap_N671_2 Phase A 35KVA
object transformer {
 name center_tap_N671_2A;
 phases AS;
 from N671;
 to trip_node671_2A;
 configuration AS35_config;
}

object triplex_node {
 name trip_node671_2A;
 phases AS;
 nominal_voltage 120;
}

object triplex_line {
 name trip_line671_2A;
 phases AS;
 from trip_node671_2A;
 to trip_meter671_2A;
 length 10;
 configuration triplex_line_configuration_1;
}

//center_tap_N671_3 Phase A 15KVA
object transformer {
 name center_tap_N671_3A;
 phases AS;
 from N671;
 to trip_node671_3A;
 configuration AS15_config;
}

object triplex_node {
 name trip_node671_3A;
 phases AS;
 nominal_voltage 120;
}

object triplex_line {
 name trip_line671_3A;
 phases AS;
 from trip_node671_3A;
 to trip_meter671_3A;
 length 10;
 configuration triplex_line_configuration_1;
}

//center_tap_N671_4 Phase A 25KVA
object transformer {
 name center_tap_N671_4A;
 phases AS;
 from N671;
 to trip_node671_4A;
 configuration AS25_config;
}

object triplex_node {
 name trip_node671_4A;
 phases AS;
 nominal_voltage 120;
}

object triplex_line {
 name trip_line671_4A;
 phases AS;
 from trip_node671_4A;
 to trip_meter671_4A;
 length 10;
 configuration triplex_line_configuration_1;
}

//center_tap_N671_5 Phase A 35KVA
object transformer {
 name center_tap_N671_5A;
 phases AS;
 from N671;
 to trip_node671_5A;
 configuration AS35_config;
}

object triplex_node {
 name trip_node671_5A;
 phases AS;
 nominal_voltage 120;
}

object triplex_line {
 name trip_line671_5A;
 phases AS;
 from trip_node671_5A;
 to trip_meter671_5A;
 length 10;
 configuration triplex_line_configuration_1;
}

//center_tap_N671_6 Phase A 20KVA
object transformer {
 name center_tap_N671_6A;
 phases AS;
 from N671;
 to trip_node671_6A;
 configuration AS20_config;
}

object triplex_node {
 name trip_node671_6A;
 phases AS;
 nominal_voltage 120;
}

object triplex_line {
 name trip_line671_6A;
 phases AS;
 from trip_node671_6A;
 to trip_meter671_6A;
 length 10;
 configuration triplex_line_configuration_1;
}

//center_tap_N671_7 Phase A 20KVA
object transformer {
 name center_tap_N671_7A;
 phases AS;
 from N671;
 to trip_node671_7A;
 configuration AS20_config;
}

object triplex_node {
 name trip_node671_7A;
 phases AS;
 nominal_voltage 120;
}

object triplex_line {
 name trip_line671_7A;
 phases AS;
 from trip_node671_7A;
 to trip_meter671_7A;
 length 10;
 configuration triplex_line_configuration_1;
}

//----------------------------------------------------------------------------
 //center_tap_N671_1 Phase B 25KVA
object transformer {
	name center_tap_N671_1B;
	phases BS;
	from N671;
	to trip_node671_1B;
	configuration BS25_config;
}

object triplex_node {
	name trip_node671_1B;
	phases BS;
	nominal_voltage 120;
}

object triplex_line {
	name trip_line671_1B;
	phases BS;
	from trip_node671_1B;
	to trip_meter671_1B;
	length 10;
	configuration triplex_line_configuration_1;
}


//center_tap_N671_2 Phase B 20KVA
object transformer {
 name center_tap_N671_2B;
 phases BS;
 from N671;
 to trip_node671_2B;
 configuration BS25_config;
}

object triplex_node {
 name trip_node671_2B;
 phases BS;
 nominal_voltage 120;
}

object triplex_line {
 name trip_line671_2B;
 phases BS;
 from trip_node671_2B;
 to trip_meter671_2B;
 length 10;
 configuration triplex_line_configuration_1;
}


//center_tap_N671_1 Phase B 30KVA
object transformer {
 name center_tap_N671_3B;
 phases BS;
 from N671;
 to trip_node671_3B;
 configuration BS30_config;
}

object triplex_node {
 name trip_node671_3B;
 phases BS;
 nominal_voltage 120;
}

object triplex_line {
 name trip_line671_3B;
 phases BS;
 from trip_node671_3B;
 to trip_meter671_3B;
 length 10;
 configuration triplex_line_configuration_1;
}

//center_tap_N671_4 Phase B 35KVA
object transformer {
 name center_tap_N671_4B;
 phases BS;
 from N671;
 to trip_node671_4B;
 configuration BS35_config;
}

object triplex_node {
 name trip_node671_4B;
 phases BS;
 nominal_voltage 120;
}

object triplex_line {
 name trip_line671_4B;
 phases BS;
 from trip_node671_4B;
 to trip_meter671_4B;
 length 10;
 configuration triplex_line_configuration_1;
}


//center_tap_N671_5 Phase B 35KVA
object transformer {
 name center_tap_N671_5B;
 phases BS;
 from N671;
 to trip_node671_5B;
 configuration BS25_config;
}

object triplex_node {
 name trip_node671_5B;
 phases BS;
 nominal_voltage 120;
}

object triplex_line {
 name trip_line671_5B;
 phases BS;
 from trip_node671_5B;
 to trip_meter671_5B;
 length 10;
 configuration triplex_line_configuration_1;
}


//center_tap_N671_6 Phase B 20KVA
object transformer {
 name center_tap_N671_6B;
 phases BS;
 from N671;
 to trip_node671_6B;
 configuration BS20_config;
}

object triplex_node {
 name trip_node671_6B;
 phases BS;
 nominal_voltage 120;
}

object triplex_line {
 name trip_line671_6B;
 phases BS;
 from trip_node671_6B;
 to trip_meter671_6B;
 length 10;
 configuration triplex_line_configuration_1;
}

//center_tap_N671_7 Phase B 20KVA
object transformer {
 name center_tap_N671_7B;
 phases BS;
 from N671;
 to trip_node671_7B;
 configuration BS20_config;
}

object triplex_node {
 name trip_node671_7B;
 phases BS;
 nominal_voltage 120;
}

object triplex_line {
 name trip_line671_7B;
 phases BS;
 from trip_node671_7B;
 to trip_meter671_7B;
 length 10;
 configuration triplex_line_configuration_1;
}


//center_tap_N671_8 Phase B 25KVA
object transformer {
 name center_tap_N671_8B;
 phases BS;
 from N671;
 to trip_node671_8B;
 configuration BS25_config;
}

object triplex_node {
 name trip_node671_8B;
 phases BS;
 nominal_voltage 120;
}

object triplex_line {
 name trip_line671_8B;
 phases BS;
 from trip_node671_8B;
 to trip_meter671_8B;
 length 10;
 configuration triplex_line_configuration_1;
}

//----------------------------------------------------------------------------
 //center_tap_N671_1 Phase C 30KVA
object transformer {
	name center_tap_N671_1C;
	phases CS;
	from N671;
	to trip_node671_1C;
	configuration CS30_config;
}

object triplex_node {
	name trip_node671_1C;
	phases CS;
	nominal_voltage 120;
}

object triplex_line {
	name trip_line671_1C;
	phases CS;
	from trip_node671_1C;
	to trip_meter671_1C;
	length 10;
	configuration triplex_line_configuration_1;
}

 //center_tap_N671_2 Phase C 25KVA
object transformer {
	name center_tap_N671_2C;
	phases CS;
	from N671;
	to trip_node671_2C;
	configuration CS25_config;
}

object triplex_node {
	name trip_node671_2C;
	phases CS;
	nominal_voltage 120;
}

object triplex_line {
	name trip_line671_2C;
	phases CS;
	from trip_node671_2C;
	to trip_meter671_2C;
	length 10;
	configuration triplex_line_configuration_1;
}

//center_tap_N671_3 Phase C 15KVA
object transformer {
 name center_tap_N671_3C;
 phases CS;
 from N671;
 to trip_node671_3C;
 configuration CS15_config;
}

object triplex_node {
 name trip_node671_3C;
 phases CS;
 nominal_voltage 120;
}

object triplex_line {
 name trip_line671_3C;
 phases CS;
 from trip_node671_3C;
 to trip_meter671_3C;
 length 10;
 configuration triplex_line_configuration_1;
}

//center_tap_N671_4 Phase C 30KVA
object transformer {
 name center_tap_N671_4C;
 phases CS;
 from N671;
 to trip_node671_4C;
 configuration CS30_config;
}

object triplex_node {
 name trip_node671_4C;
 phases CS;
 nominal_voltage 120;
}

object triplex_line {
 name trip_line671_4C;
 phases CS;
 from trip_node671_4C;
 to trip_meter671_4C;
 length 10;
 configuration triplex_line_configuration_1;
}

//center_tap_N671_5 Phase C 35KVA
object transformer {
 name center_tap_N671_5C;
 phases CS;
 from N671;
 to trip_node671_5C;
 configuration CS35_config;
}

object triplex_node {
 name trip_node671_5C;
 phases CS;
 nominal_voltage 120;
}

object triplex_line {
 name trip_line671_5C;
 phases CS;
 from trip_node671_5C;
 to trip_meter671_5C;
 length 10;
 configuration triplex_line_configuration_1;
}

//center_tap_N671_6 Phase C 25KVA
object transformer {
 name center_tap_N671_6C;
 phases CS;
 from N671;
 to trip_node671_6C;
 configuration CS25_config;
}

object triplex_node {
 name trip_node671_6C;
 phases CS;
 nominal_voltage 120;
}

object triplex_line {
 name trip_line671_6C;
 phases CS;
 from trip_node671_6C;
 to trip_meter671_6C;
 length 10;
 configuration triplex_line_configuration_1;
}

//center_tap_N671_7 Phase C 35KVA
object transformer {
 name center_tap_N671_7C;
 phases CS;
 from N671;
 to trip_node671_7C;
 configuration CS35_config;
}

object triplex_node {
 name trip_node671_7C;
 phases CS;
 nominal_voltage 120;
}

object triplex_line {
 name trip_line671_7C;
 phases CS;
 from trip_node671_7C;
 to trip_meter671_7C;
 length 10;
 configuration triplex_line_configuration_1;
}

//----------------------------------------------------------------------------
// center Tap transformers:
// Node 675 [ 21 transformers]: 109 Houses
// Transformer for Node 675 ( Three Phase | Phase A,B and C ) || Triplex Node || Triplex line
// 109 Houses : 21 transformers :
 //center_tap_N675_1 Phase A 25KVA
 object transformer {
  name center_tap_N675_1A;
  phases AS;
  from N675;
  to trip_node675_1A;
  configuration AS25_config;
 }

 object triplex_node {
  name trip_node675_1A;
  phases AS;
  nominal_voltage 120;
 }

 object triplex_line {
  name trip_line675_1A;
  phases AS;
  from trip_node675_1A;
  to trip_meter675_1A;
  length 10;
  configuration triplex_line_configuration_1;
 }

 //center_tap_N675_2 Phase A 25KVA
 object transformer {
  name center_tap_N675_2A;
  phases AS;
  from N675;
  to trip_node675_2A;
  configuration AS25_config;
 }

 object triplex_node {
  name trip_node675_2A;
  phases AS;
  nominal_voltage 120;
 }

 object triplex_line {
  name trip_line675_2A;
  phases AS;
  from trip_node675_2A;
  to trip_meter675_2A;
  length 10;
  configuration triplex_line_configuration_1;
 }

 //center_tap_N675_3 Phase A 30KVA
 object transformer {
  name center_tap_N675_3A;
  phases AS;
  from N675;
  to trip_node675_3A;
  configuration AS30_config;
 }

 object triplex_node {
  name trip_node675_3A;
  phases AS;
  nominal_voltage 120;
 }

 object triplex_line {
  name trip_line675_3A;
  phases AS;
  from trip_node675_3A;
  to trip_meter675_3A;
  length 10;
  configuration triplex_line_configuration_1;
 }


 //center_tap_N675_4 Phase A 30KVA
 object transformer {
  name center_tap_N675_4A;
  phases AS;
  from N675;
  to trip_node675_4A;
  configuration AS30_config;
 }

 object triplex_node {
  name trip_node675_4A;
  phases AS;
  nominal_voltage 120;
 }

 object triplex_line {
  name trip_line675_4A;
  phases AS;
  from trip_node675_4A;
  to trip_meter675_4A;
  length 10;
  configuration triplex_line_configuration_1;
 }


 //center_tap_N675_5 Phase A 15KVA
 object transformer {
  name center_tap_N675_5A;
  phases AS;
  from N675;
  to trip_node675_5A;
  configuration AS15_config;
 }

 object triplex_node {
  name trip_node675_5A;
  phases AS;
  nominal_voltage 120;
 }

 object triplex_line {
  name trip_line675_5A;
  phases AS;
  from trip_node675_5A;
  to trip_meter675_5A;
  length 10;
  configuration triplex_line_configuration_1;
 }


 //center_tap_N675_6 Phase A 35KVA
 object transformer {
  name center_tap_N675_6A;
  phases AS;
  from N675;
  to trip_node675_6A;
  configuration AS35_config;
 }

 object triplex_node {
  name trip_node675_6A;
  phases AS;
  nominal_voltage 120;
 }

 object triplex_line {
  name trip_line675_6A;
  phases AS;
  from trip_node675_6A;
  to trip_meter675_6A;
  length 10;
  configuration triplex_line_configuration_1;
 }

 //center_tap_N675_7 Phase A 25KVA
 object transformer {
  name center_tap_N675_7A;
  phases AS;
  from N675;
  to trip_node675_7A;
  configuration AS25_config;
 }

 object triplex_node {
  name trip_node675_7A;
  phases AS;
  nominal_voltage 120;
 }

 object triplex_line {
  name trip_line675_7A;
  phases AS;
  from trip_node675_7A;
  to trip_meter675_7A;
  length 10;
  configuration triplex_line_configuration_1;
 }

 //----------------------------------------------------------------------------
 //center_tap_N675_1 Phase B 25KVA
 object transformer {
  name center_tap_N675_1B;
  phases BS;
  from N675;
  to trip_node675_1B;
  configuration BS25_config;
 }

 object triplex_node {
  name trip_node675_1B;
  phases BS;
  nominal_voltage 120;
 }

 object triplex_line {
  name trip_line675_1B;
  phases BS;
  from trip_node675_1B;
  to trip_meter675_1B;
  length 10;
  configuration triplex_line_configuration_1;
 }

 //center_tap_N675_2 Phase B 25KVA
 object transformer {
  name center_tap_N675_2B;
  phases BS;
  from N675;
  to trip_node675_2B;
  configuration BS25_config;
 }

 object triplex_node {
  name trip_node675_2B;
  phases BS;
  nominal_voltage 120;
 }

 object triplex_line {
  name trip_line675_2B;
  phases BS;
  from trip_node675_2B;
  to trip_meter675_2B;
  length 10;
  configuration triplex_line_configuration_1;
 }

 //center_tap_N675_3 Phase B 30KVA
 object transformer {
  name center_tap_N675_3B;
  phases BS;
  from N675;
  to trip_node675_3B;
  configuration BS30_config;
 }

 object triplex_node {
  name trip_node675_3B;
  phases BS;
  nominal_voltage 120;
 }

 object triplex_line {
  name trip_line675_3B;
  phases BS;
  from trip_node675_3B;
  to trip_meter675_3B;
  length 10;
  configuration triplex_line_configuration_1;
 }

 //center_tap_N675_4 Phase B 25KVA
 object transformer {
  name center_tap_N675_4B;
  phases BS;
  from N675;
  to trip_node675_4B;
  configuration BS25_config;
 }

 object triplex_node {
  name trip_node675_4B;
  phases BS;
  nominal_voltage 120;
 }

 object triplex_line {
  name trip_line675_4B;
  phases BS;
  from trip_node675_4B;
  to trip_meter675_4B;
  length 10;
  configuration triplex_line_configuration_1;
 }

 //center_tap_N675_5 Phase B 30KVA
 object transformer {
  name center_tap_N675_5B;
  phases BS;
  from N675;
  to trip_node675_5B;
  configuration BS30_config;
 }

 object triplex_node {
  name trip_node675_5B;
  phases BS;
  nominal_voltage 120;
 }

 object triplex_line {
  name trip_line675_5B;
  phases BS;
  from trip_node675_5B;
  to trip_meter675_5B;
  length 10;
  configuration triplex_line_configuration_1;
 }

 //center_tap_N675_6 Phase B 30KVA
 object transformer {
  name center_tap_N675_6B;
  phases BS;
  from N675;
  to trip_node675_6B;
  configuration BS30_config;
 }

 object triplex_node {
  name trip_node675_6B;
  phases BS;
  nominal_voltage 120;
 }

 object triplex_line {
  name trip_line675_6B;
  phases BS;
  from trip_node675_6B;
  to trip_meter675_6B;
  length 10;
  configuration triplex_line_configuration_1;
 }


 //center_tap_N675_7 Phase B 30KVA
 object transformer {
  name center_tap_N675_7B;
  phases BS;
  from N675;
  to trip_node675_7B;
  configuration BS30_config;
 }

 object triplex_node {
  name trip_node675_7B;
  phases BS;
  nominal_voltage 120;
 }

 object triplex_line {
  name trip_line675_7B;
  phases BS;
  from trip_node675_7B;
  to trip_meter675_7B;
  length 10;
  configuration triplex_line_configuration_1;
 }

//-----------------------------------------------------------------------------
//center_tap_N675_1 Phase C 35KVA
object transformer {
 name center_tap_N675_1C;
 phases CS;
 from N675;
 to trip_node675_1C;
 configuration CS35_config;
}

object triplex_node {
 name trip_node675_1C;
 phases CS;
 nominal_voltage 120;
}

object triplex_line {
 name trip_line675_1C;
 phases CS;
 from trip_node675_1C;
 to trip_meter675_1C;
 length 10;
 configuration triplex_line_configuration_1;
}

//center_tap_N675_2 Phase C 15KVA
object transformer {
 name center_tap_N675_2C;
 phases CS;
 from N675;
 to trip_node675_2C;
 configuration CS15_config;
}

object triplex_node {
 name trip_node675_2C;
 phases CS;
 nominal_voltage 120;
}

object triplex_line {
 name trip_line675_2C;
 phases CS;
 from trip_node675_2C;
 to trip_meter675_2C;
 length 10;
 configuration triplex_line_configuration_1;
}

//center_tap_N675_3 Phase C 20KVA
object transformer {
 name center_tap_N675_3C;
 phases CS;
 from N675;
 to trip_node675_3C;
 configuration CS20_config;
}

object triplex_node {
 name trip_node675_3C;
 phases CS;
 nominal_voltage 120;
}

object triplex_line {
 name trip_line675_3C;
 phases CS;
 from trip_node675_3C;
 to trip_meter675_3C;
 length 10;
 configuration triplex_line_configuration_1;
}


//center_tap_N675_4 Phase C 30KVA
object transformer {
 name center_tap_N675_4C;
 phases CS;
 from N675;
 to trip_node675_4C;
 configuration CS30_config;
}

object triplex_node {
 name trip_node675_4C;
 phases CS;
 nominal_voltage 120;
}

object triplex_line {
 name trip_line675_4C;
 phases CS;
 from trip_node675_4C;
 to trip_meter675_4C;
 length 10;
 configuration triplex_line_configuration_1;
}

//center_tap_N675_5 Phase C 20KVA
object transformer {
 name center_tap_N675_5C;
 phases CS;
 from N675;
 to trip_node675_5C;
 configuration CS20_config;
}

object triplex_node {
 name trip_node675_5C;
 phases CS;
 nominal_voltage 120;
}

object triplex_line {
 name trip_line675_5C;
 phases CS;
 from trip_node675_5C;
 to trip_meter675_5C;
 length 10;
 configuration triplex_line_configuration_1;
}


//center_tap_N675_6 Phase C 15KVA
object transformer {
 name center_tap_N675_6C;
 phases CS;
 from N675;
 to trip_node675_6C;
 configuration CS15_config;
}

object triplex_node {
 name trip_node675_6C;
 phases CS;
 nominal_voltage 120;
}

object triplex_line {
 name trip_line675_6C;
 phases CS;
 from trip_node675_6C;
 to trip_meter675_6C;
 length 10;
 configuration triplex_line_configuration_1;
}


//center_tap_N675_7 Phase C 30KVA
object transformer {
 name center_tap_N675_7C;
 phases CS;
 from N675;
 to trip_node675_7C;
 configuration CS30_config;
}

object triplex_node {
 name trip_node675_7C;
 phases CS;
 nominal_voltage 120;
}

object triplex_line {
 name trip_line675_7C;
 phases CS;
 from trip_node675_7C;
 to trip_meter675_7C;
 length 10;
 configuration triplex_line_configuration_1;
}


//-----------------------------------------------------------------------------
// Meters of transformers connected on Node 675 Phase A
object triplex_meter {
	name trip_meter675_1A;
	phases AS;
	nominal_voltage 120;
}

object triplex_meter {
	name trip_meter675_2A;
	phases AS;
	nominal_voltage 120;
}

object triplex_meter {
	name trip_meter675_3A;
	phases AS;
	nominal_voltage 120;
}

object triplex_meter {
	name trip_meter675_4A;
	phases AS;
	nominal_voltage 120;
}

object triplex_meter {
	name trip_meter675_5A;
	phases AS;
	nominal_voltage 120;
}

object triplex_meter {
	name trip_meter675_6A;
	phases AS;
	nominal_voltage 120;
}

object triplex_meter {
	name trip_meter675_7A;
	phases AS;
	nominal_voltage 120;
}

//-----------------------------------------------------------------------------
// Meters of transformers connected on Node 675 Phase B
object triplex_meter {
	name trip_meter675_1B;
	phases BS;
	nominal_voltage 120;
}

object triplex_meter {
	name trip_meter675_2B;
	phases BS;
	nominal_voltage 120;
}

object triplex_meter {
	name trip_meter675_3B;
	phases BS;
	nominal_voltage 120;
}

object triplex_meter {
	name trip_meter675_4B;
	phases BS;
	nominal_voltage 120;
}

object triplex_meter {
	name trip_meter675_5B;
	phases BS;
	nominal_voltage 120;
}

object triplex_meter {
	name trip_meter675_6B;
	phases BS;
	nominal_voltage 120;
}

object triplex_meter {
	name trip_meter675_7B;
	phases BS;
	nominal_voltage 120;
}
//-----------------------------------------------------------------------------
// Meters of transformers connected on Node 675 Phase C
object triplex_meter {
	name trip_meter675_1C;
	phases CS;
	nominal_voltage 120;
}

object triplex_meter {
	name trip_meter675_2C;
	phases CS;
	nominal_voltage 120;
}

object triplex_meter {
	name trip_meter675_3C;
	phases CS;
	nominal_voltage 120;
}

object triplex_meter {
	name trip_meter675_4C;
	phases CS;
	nominal_voltage 120;
}

object triplex_meter {
	name trip_meter675_5C;
	phases CS;
	nominal_voltage 120;
}

object triplex_meter {
	name trip_meter675_6C;
	phases CS;
	nominal_voltage 120;
}

object triplex_meter {
	name trip_meter675_7C;
	phases CS;
	nominal_voltage 120;
}
//-----------------------------------------------------------------------------
// center Tap transformers:
// Node 692 [ 21 transformers]: 114 Houses
// Transformer for Node 692 ( Three Phase | Phase A,B and C ) || Triplex Node || Triplex line
// 114 Houses : 21 transformers :
// center_tap_N692_1 Phase A 15KVA
object transformer {
	name center_tap_N692_1A;
	phases AS;
	from N692;
	to trip_node692_1A;
	configuration AS15_config;
}

object triplex_node {
	name trip_node692_1A;
	phases AS;
	nominal_voltage 120;
}

object triplex_line {
	name trip_line692_1A;
	phases AS;
	from trip_node692_1A;
	to trip_meter692_1A;
	length 10;
	configuration triplex_line_configuration_1;
}

// center_tap_N692_2 Phase A 30KVA
object transformer {
	name center_tap_N692_2A;
	phases AS;
	from N692;
	to trip_node692_2A;
	configuration AS30_config;
}

object triplex_node {
	name trip_node692_2A;
	phases AS;
	nominal_voltage 120;
}


object triplex_line {
	name trip_line692_2A;
	phases AS;
	from trip_node692_2A;
	to trip_meter692_2A;
	length 10;
	configuration triplex_line_configuration_1;
}


// center_tap_N692_3 Phase A 25KVA
object transformer {
	name center_tap_N692_3A;
	phases AS;
	from N692;
	to trip_node692_3A;
	configuration AS25_config;
}

object triplex_node {
	name trip_node692_3A;
	phases AS;
	nominal_voltage 120;
}


object triplex_line {
	name trip_line692_3A;
	phases AS;
	from trip_node692_3A;
	to trip_meter692_3A;
	length 10;
	configuration triplex_line_configuration_1;
}

// center_tap_N692_4 Phase A 30KVA
object transformer {
	name center_tap_N692_4A;
	phases AS;
	from N692;
	to trip_node692_4A;
	configuration AS30_config;
}

object triplex_node {
	name trip_node692_4A;
	phases AS;
	nominal_voltage 120;
}


object triplex_line {
	name trip_line692_4A;
	phases AS;
	from trip_node692_4A;
	to trip_meter692_4A;
	length 10;
	configuration triplex_line_configuration_1;
}


// center_tap_N692_5 Phase A 35KVA
object transformer {
	name center_tap_N692_5A;
	phases AS;
	from N692;
	to trip_node692_5A;
	configuration AS35_config;
}

object triplex_node {
	name trip_node692_5A;
	phases AS;
	nominal_voltage 120;
}

object triplex_line {
	name trip_line692_5A;
	phases AS;
	from trip_node692_5A;
	to trip_meter692_5A;
	length 10;
	configuration triplex_line_configuration_1;
}

// center_tap_N692_6 Phase A 25KVA
object transformer {
	name center_tap_N692_6A;
	phases AS;
	from N692;
	to trip_node692_6A;
	configuration AS25_config;
}

object triplex_node {
	name trip_node692_6A;
	phases AS;
	nominal_voltage 120;
}

object triplex_line {
	name trip_line692_6A;
	phases AS;
	from trip_node692_6A;
	to trip_meter692_6A;
	length 10;
	configuration triplex_line_configuration_1;
}

// center_tap_N692_7 Phase A 30KVA
object transformer {
	name center_tap_N692_7A;
	phases AS;
	from N692;
	to trip_node692_7A;
	configuration AS30_config;
}

object triplex_node {
	name trip_node692_7A;
	phases AS;
	nominal_voltage 120;
}

object triplex_line {
	name trip_line692_7A;
	phases AS;
	from trip_node692_7A;
	to trip_meter692_7A;
	length 10;
	configuration triplex_line_configuration_1;
}

//---------------------------------------------------------------------------
// center_tap_N692_1 Phase B 25KVA
object transformer {
	name center_tap_N692_1B;
	phases BS;
	from N692;
	to trip_node692_1B;
	configuration BS25_config;
}

object triplex_node {
	name trip_node692_1B;
	phases BS;
	nominal_voltage 120;
}

object triplex_line {
	name trip_line692_1B;
	phases BS;
	from trip_node692_1B;
	to trip_meter692_1B;
	length 10;
	configuration triplex_line_configuration_1;
}

// center_tap_N692_2 Phase B 15KVA
object transformer {
	name center_tap_N692_2B;
	phases BS;
	from N692;
	to trip_node692_2B;
	configuration BS15_config;
}

object triplex_node {
	name trip_node692_2B;
	phases BS;
	nominal_voltage 120;
}

object triplex_line {
	name trip_line692_2B;
	phases BS;
	from trip_node692_2B;
	to trip_meter692_2B;
	length 10;
	configuration triplex_line_configuration_1;
}


// center_tap_N692_3 Phase B 30KVA
object transformer {
	name center_tap_N692_3B;
	phases BS;
	from N692;
	to trip_node692_3B;
	configuration BS30_config;
}

object triplex_node {
	name trip_node692_3B;
	phases BS;
	nominal_voltage 120;
}

object triplex_line {
	name trip_line692_3B;
	phases BS;
	from trip_node692_3B;
	to trip_meter692_3B;
	length 10;
	configuration triplex_line_configuration_1;
}

// center_tap_N692_4 Phase B 30KVA
object transformer {
	name center_tap_N692_4B;
	phases BS;
	from N692;
	to trip_node692_4B;
	configuration BS30_config;
}

object triplex_node {
	name trip_node692_4B;
	phases BS;
	nominal_voltage 120;
}

object triplex_line {
	name trip_line692_4B;
	phases BS;
	from trip_node692_4B;
	to trip_meter692_4B;
	length 10;
	configuration triplex_line_configuration_1;
}

// center_tap_N692_5 Phase B 15KVA
object transformer {
	name center_tap_N692_5B;
	phases BS;
	from N692;
	to trip_node692_5B;
	configuration BS15_config;
}

object triplex_node {
	name trip_node692_5B;
	phases BS;
	nominal_voltage 120;
}

object triplex_line {
	name trip_line692_5B;
	phases BS;
	from trip_node692_5B;
	to trip_meter692_5B;
	length 10;
	configuration triplex_line_configuration_1;
}

// center_tap_N692_6 Phase B 30KVA
object transformer {
	name center_tap_N692_6B;
	phases BS;
	from N692;
	to trip_node692_6B;
	configuration BS30_config;
}

object triplex_node {
	name trip_node692_6B;
	phases BS;
	nominal_voltage 120;
}

object triplex_line {
	name trip_line692_6B;
	phases BS;
	from trip_node692_6B;
	to trip_meter692_6B;
	length 10;
	configuration triplex_line_configuration_1;
}

// center_tap_N692_7 Phase B 30KVA
object transformer {
	name center_tap_N692_7B;
	phases BS;
	from N692;
	to trip_node692_7B;
	configuration BS30_config;
}

object triplex_node {
	name trip_node692_7B;
	phases BS;
	nominal_voltage 120;
}

object triplex_line {
	name trip_line692_7B;
	phases BS;
	from trip_node692_7B;
	to trip_meter692_7B;
	length 10;
	configuration triplex_line_configuration_1;
}
//------------------------------------------------------------------------
...